/*--------------------------------*- C++ -*----------------------------------*\
  =========                |
  \      /  F ield         | OpenFOAM: The Open Source CFD Toolbox
   \    /   O peration     | Website:  https://openfoam.org
    \  /    A nd           | Version:  7
     \/     M anipulation  |
  \*---------------------------------------------------------------------------*/
FoamFile
{
  version     2.0;
  format      ascii;
  class       dictionary;
  location    "constant";
  object      transportProperties;
}
// * * * * * * * * * * * * * * * * * * * * * * * * * * * * * * * * * * * * * //

activateCapillarity	1;

eps eps [0 0 0 0 0 0 0]	0.15;
//K  K [0  2  0 0 0 0 0] 1e-12;

phase.a
{
  rho	rho [1 -3 0 0 0 0 0] 	750;//1000;
  mu	mu [1 -1 -1 0 0 0 0]	3.9750e-04;;//4e-3;
}
	
phase.b
{
  rho	rho [1 -3 0 0 0 0 0] 	1000;//750;
  mu	mu [1 -1 -1 0 0 0 0]	4e-3;//3.9750e-04;
}

//// relative permeability model ////

relativePermeabilityModel   BrooksAndCorey;
//relativePermeabilityModel  VanGenuchten;


capillarityModel	BrooksAndCorey;

BrooksAndCoreyCoeffs
{
    // kr 
        n 3;

    // pc 
    pc0 4000;
    alpha 0.2;
    	
    Sbmin 0.001;
    Sbmax 0.999;
}

/*
VanGenuchtenCoeffs
{
    pc0 4000;
    m 0.5;	
    Sbmin 0.001;
    Sbmax 0.999;	
}
*/
//eventFileWaterSource "injection.evt";

// ************************************************************************* //
