/*--------------------------------*- C++ -*----------------------------------*\
  =========                |
  \      /  F ield         | OpenFOAM: The Open Source CFD Toolbox
   \    /   O peration     | Website:  https://openfoam.org
    \  /    A nd           | Version:  7
     \/     M anipulation  |
\*---------------------------------------------------------------------------*/
FoamFile
{
    version     2.0;
    format      ascii;
    class       volScalarField;
    location    "0";
    object      K;
}
// * * * * * * * * * * * * * * * * * * * * * * * * * * * * * * * * * * * * * //

dimensions     [0  2  0 0 0 0 0];

internalField   uniform 1e-12;

boundaryField
{
    leftWall
    {
        type            zeroGradient;
    }

    topWall
    {
        type            zeroGradient;
    }

    lowerWall
    {
        type            zeroGradient;
    }
    
    injector
    {
        type            zeroGradient;
    }

    rightSpace
    {
        type            zeroGradient;
    }

    defaultFaces
    {
        type            empty;
    }
}


// ************************************************************************* //
