/*--------------------------------*- C++ -*----------------------------------*\
  =========                |
  \      /  F ield         | OpenFOAM: The Open Source CFD Toolbox
   \    /   O peration     | Website:  https://openfoam.org
    \  /    A nd           | Version:  7
     \/     M anipulation  |
\*---------------------------------------------------------------------------*/
FoamFile
{
    version     2.0;
    format      ascii;
    class       volScalarField;
    location    "0";
    object      p;
}
// * * * * * * * * * * * * * * * * * * * * * * * * * * * * * * * * * * * * * //

dimensions      [1 -1 -2 0 0 0 0];

internalField   uniform 0;

boundaryField
{
    leftWall
    {
        type            darcyGradPressure;
       	value		uniform 0; 
    }

    topWall
    {
        type            darcyGradPressure;
       	value		uniform 0; 
    }

    lowerWall
    {
        type            darcyGradPressure;
       	value		uniform 0; 
    }
    
    injector
    {
        type            darcyGradPressure;
       	value		uniform 0; 
    }

    rightSpace
    {
        type            fixedValue;
        value           uniform 0;
    }

    defaultFaces
    {
        type            empty;
    }
}


// ************************************************************************* //
