/*--------------------------------*- C++ -*----------------------------------*\
  =========                |
  \      /  F ield         | OpenFOAM: The Open Source CFD Toolbox
   \    /   O peration     | Website:  https://openfoam.org
    \  /    A nd           | Version:  7
     \/     M anipulation  |
\*---------------------------------------------------------------------------*/
FoamFile
{
    version     2.0;
    format      ascii;
    class       volVectorField;
    location    "0";
    object      Ub;
}
// * * * * * * * * * * * * * * * * * * * * * * * * * * * * * * * * * * * * * //

dimensions      [0 1 -1 0 0 0 0];

internalField   uniform (0 0 0);

boundaryField
{
    leftWall
    {
        type            fixedValue;
		value           uniform (0 0 0);
    }

    topWall
    {
        type            fixedValue;
		value           uniform (0 0 0);
    }

    lowerWall
    {
        type            fixedValue;
		value           uniform (0 0 0);
    }
    
    injector
    {
        type   flowRateInletVelocity;
        volumetricFlowRate constant 1.5e-6; // 1.5e-6 m^3/s, at this rate 8e6 seconds are needed to fill up a 0.1m*20m*40m domain, note that acutal volume when porosity is involved will become porosity*Vol
    }

    rightSpace
    {
        type            zeroGradient;
    }

    defaultFaces
    {
        type            empty;
    }
}


// ************************************************************************* //
