/*--------------------------------*- C++ -*----------------------------------*\
  =========                |
  \      /  F ield         | OpenFOAM: The Open Source CFD Toolbox
   \    /   O peration     | Website:  https://openfoam.org
    \  /    A nd           | Version:  7
     \/     M anipulation  |
  \*---------------------------------------------------------------------------*/
FoamFile
{
  version     2.0;
  format      ascii;
  class       dictionary;
  location    "constant";
  object      transportProperties;
}
// * * * * * * * * * * * * * * * * * * * * * * * * * * * * * * * * * * * * * //

activateCapillarity	0.;

eps eps [0 0 0 0 0 0 0]	0.15;
K  K [0  2  0 0 0 0 0] 1e-12;

phase.a
{
  rho	rho [1 -3 0 0 0 0 0] 	1000;//1000;
  mu	mu [1 -1 -1 0 0 0 0]	4e-3;//4e-3;
}
	
phase.b
{
  rho	rho [1 -3 0 0 0 0 0] 	750;//750;
  mu	mu [1 -1 -1 0 0 0 0]	3.9750e-04;//3.9750e-04;
}

//// relative permeability model ////

relativePermeabilityModel  VanGenuchten;


capillarityModel	VanGenuchten;

VanGenuchtenCoeffs
{
    pc0 5;
    m 0.5;	
    Sbmin 0;
    Sbmax 0.999;	
}

//eventFileWaterSource "injection.evt";

// ************************************************************************* //
